{
   "completed_at" : "20170516T163750Z",
   "completed_status" : "Success",
   "created_at" : "20170516T163730Z",
   "current_step" : 0,
   "eplusout_err" : "Program Version,EnergyPlus, Version 8.7.0-78a111df4a, YMD=2017.05.16 10:37,IDD_Version 8.7.0\n   ** Warning ** ProcessScheduleInput: Schedule:Day:Interval=\"SCHEDULE DAY 4\", , One or more values are not integer as required by Schedule Type Limits Name=ONOFF\n   ** Warning ** ProcessScheduleInput: Schedule:Constant=\"ALWAYS ON DISCRETE\", Blank Schedule Type Limits Name input -- will not be validated.\n   ** Warning ** ProcessScheduleInput: Schedule:Constant=\"ALWAYS OFF DISCRETE\", Blank Schedule Type Limits Name input -- will not be validated.\n   ** Warning ** ProcessScheduleInput: Schedule:Constant=\"ALWAYS ON CONTINUOUS\", Blank Schedule Type Limits Name input -- will not be validated.\n   ** Warning ** GetHTSurfaceData: Surfaces with interface to Ground found but no \"Ground Temperatures\" were input.\n   **   ~~~   ** Found first in surface=ZONE SURFACE FLOOR\n   **   ~~~   ** Defaults, constant throughout the year of (18.0) will be used.\n   ** Warning ** CheckUsedConstructions: There are 2 nominally unused constructions in input.\n   **   ~~~   ** For explicit details on each unused construction, use Output:Diagnostics,DisplayExtraWarnings;\n   ** Warning ** Output:Meter: invalid Name=\"ELECTRICITY:FACILITY\" - not found.\n   ** Warning ** Output:Meter: invalid Name=\"GAS:FACILITY\" - not found.\n   ** Warning ** Output:Meter: invalid Name=\"DISTRICTCOOLING:FACILITY\" - not found.\n   ** Warning ** Output:Meter: invalid Name=\"DISTRICTHEATING:FACILITY\" - not found.\n   ** Warning ** Output:Meter:MeterFileOnly: invalid Name=\"GAS:FACILITY\" - not found.\n   ** Warning ** Output:Meter:MeterFileOnly: invalid Name=\"ELECTRICITY:FACILITY\" - not found.\n   ** Warning ** Output:Meter:MeterFileOnly: invalid Name=\"ELECTRICITY:FACILITY\" - not found.\n   ************* Testing Individual Branch Integrity\n   ************* All Branches passed integrity testing\n   ************* Testing Individual Supply Air Path Integrity\n   ************* All Supply Air Paths passed integrity testing\n   ************* Testing Individual Return Air Path Integrity\n   ************* All Return Air Paths passed integrity testing\n   ************* No node connection errors were found.\n   ************* Beginning Simulation\n   ************* Simulation Error Summary *************\n   ************* There are 5 unused schedules in input.\n   ************* There are 5 unused week schedules in input.\n   ************* There are 5 unused day schedules in input.\n   ************* Use Output:Diagnostics,DisplayUnusedSchedules; to see them.\n   *************\n   ************* ===== Final Error Summary =====\n   ************* The following error categories occurred.  Consider correcting or noting.\n   ************* Nominally Unused Constructions\n   ************* ..The nominally unused constructions warning is provided to alert you to potential conditions that can cause\n   ************* ..extra time during simulation. Each construction is calculated by the algorithm indicated in the HeatBalanceAlgorithm\n   ************* ..object. You may remove the constructions indicated (when you use the DisplayExtraWarnings option).\n   *************\n   ************* EnergyPlus Warmup Error Summary. During Warmup: 0 Warning; 0 Severe Errors.\n   ************* EnergyPlus Sizing Error Summary. During Sizing: 0 Warning; 0 Severe Errors.\n   ************* EnergyPlus Completed Successfully-- 13 Warning; 0 Severe Errors; Elapsed Time=00hr 00min  2.61sec\n",
   "hash" : "63A56992",
   "seed_file" : "/Users/dgoldwas/Documents/GitHub/NREL/OSEP_BESTTEST/measures/bestest_building_thermal_envelope_and_fabric_load_reporting/tests/output/case_950FF/TestOutput.osm",
   "started_at" : "20170516T163733Z",
   "steps" : [],
   "updated_at" : "20170516T163750Z",
   "weather_file" : "/Users/dgoldwas/Documents/GitHub/NREL/OSEP_BESTTEST/measures/bestest_building_thermal_envelope_and_fabric_load_reporting/tests/DRYCOLDTMY.epw"
}
